
**** 05/26/16 09:33:57 ****** PSpice Lite (October 2012) ****** ID# 10813 ****

 ** Profile: "SCHEMATIC1-Initial_investigations"  [ C:\Users\Vijay\Google Drive\PSpice\FYP\Intro\Initial_Investigations\initial_inves


 ****     CIRCUIT DESCRIPTION


******************************************************************************




** Creating circuit file "Initial_investigations.cir" 
** WARNING: THIS AUTOMATICALLY GENERATED FILE MAY BE OVERWRITTEN BY SUBSEQUENT SIMULATIONS

*Libraries: 
* Profile Libraries :
* Local Libraries :
.LIB "../../../initial_investigations-pspicefiles/vteam.lib" 
* From [PSPICE NETLIST] section of C:\Users\Vijay\Documents\PSpice\cdssetup\OrCAD_PSpice/16.6.0/PSpice.ini file:
.lib "nomd.lib" 

*Analysis directives: 
.TRAN  0 80 0 SKIPBP 
.OPTIONS ADVCONV
.PROBE64 V(*) I(*) W(alias(*)) D(alias(*)) NOISE(alias(*)) 
.INC "..\SCHEMATIC1.net" 



**** INCLUDING SCHEMATIC1.net ****
* source INITIAL_INVESTIGATIONS
V_V5         N01605 0  
+PULSE -0.9 0.9 1s 100n 100n 20s 41s
I_I1         N02425 0 DC 0Adc AC 0Aac
+PULSE 0.5m -0.5m 1 100n 100n 20 40
X_U1         N01605 0 VTEAM PARAMS:  INITIAL_X=0.75 X_OFF=1 X_ON=0 V_ON=-0.8
+  V_OFF=0.8 K_ON=-0.036363636 K_OFF=0.036363636 ALPHA_ON=0.1 ALPHA_OFF=0.1
+  R_OFF=50000 R_ON=500 LAMDA=4.60517 OMEGA=25E-3 A_ON=0.05 A_OFF=0.95
X_U2         N02425 0 VTEAM PARAMS:  INITIAL_X=0.75 X_OFF=1 X_ON=0 V_ON=-0.8
+  V_OFF=0.8 K_ON=-0.036363636 K_OFF=0.036363636 ALPHA_ON=0.1 ALPHA_OFF=0.1
+  R_OFF=50000 R_ON=500 LAMDA=4.60517 OMEGA=25E-3 A_ON=0.05 A_OFF=0.95

**** RESUMING Initial_investigations.cir ****
.END

**** 05/26/16 09:33:57 ****** PSpice Lite (October 2012) ****** ID# 10813 ****

 ** Profile: "SCHEMATIC1-Initial_investigations"  [ C:\Users\Vijay\Google Drive\PSpice\FYP\Intro\Initial_Investigations\initial_inves


 ****     Diode MODEL PARAMETERS


******************************************************************************




               Dbreak          
          IS   10.000000E-15 
           N  100.000000E-06 
          RS  100.000000E-06 
         CJO  100.000000E-15 



          JOB CONCLUDED

**** 05/26/16 09:33:57 ****** PSpice Lite (October 2012) ****** ID# 10813 ****

 ** Profile: "SCHEMATIC1-Initial_investigations"  [ C:\Users\Vijay\Google Drive\PSpice\FYP\Intro\Initial_Investigations\initial_inves


 ****     JOB STATISTICS SUMMARY


******************************************************************************



  License check-out time            =        2.08
  Total job time (using Solver 1)   =         .11
