
**** 05/26/16 09:05:45 ****** PSpice Lite (October 2012) ****** ID# 10813 ****

 ** Profile: "SCHEMATIC1-MRL_nand_xor"  [ C:\Users\Vijay\Google Drive\PSpice\FYP\MRL_nand_xor\MRL_nand_xor-PSpiceFiles\SCHEMATIC1\MRL


 ****     CIRCUIT DESCRIPTION


******************************************************************************




** Creating circuit file "MRL_nand_xor.cir" 
** WARNING: THIS AUTOMATICALLY GENERATED FILE MAY BE OVERWRITTEN BY SUBSEQUENT SIMULATIONS

*Libraries: 
* Profile Libraries :
* Local Libraries :
.LIB "../../../mrl_nand_xor-pspicefiles/vteam.lib" 
.LIB "../../../mrl_nand_xor-pspicefiles/mrl_nand_xor.lib" 
* From [PSPICE NETLIST] section of C:\Users\Vijay\Documents\PSpice\cdssetup\OrCAD_PSpice/16.6.0/PSpice.ini file:
.lib "nomd.lib" 

*Analysis directives: 
.TRAN  0 78.99s 0 10m SKIPBP 
.OPTIONS ADVCONV
.PROBE64 V(*) I(*) W(alias(*)) D(alias(*)) NOISE(alias(*)) 
.INC "..\SCHEMATIC1.net" 



**** INCLUDING SCHEMATIC1.net ****
* source MRL_NAND_XOR
V_Vin2         VIN2 0   PWL   
+ FILE "C:\Users\Vijay\Google Drive\PSpice\FYP\MRL_nand_xor\v2.txt" 
V_V1         VDD 0 5Vdc
V_Vin1         VIN1 0   PWL   
+ FILE "C:\Users\Vijay\Google Drive\PSpice\FYP\MRL_nand_xor\v1.txt" 
M_T8         N32234 N32194 0 0 Mbreakn           
M_T6         N32322 N32120 0 0 Mbreakn           
M_T2         N32254 N31968 VDD VDD Mbreakp           
X_M1         VIN1 N31968 VTEAM PARAMS:  INITIAL_X=0.5 X_OFF=1 X_ON=0 V_ON=-0.8
+  V_OFF=0.8 K_ON=-0.036363636 K_OFF=0.036363636 ALPHA_ON=0.1 ALPHA_OFF=0.1
+  R_OFF=50000 R_ON=500 LAMDA=4.60517 OMEGA=25E-3 A_ON=0.05 A_OFF=0.95
M_T7         N32234 N32194 VDD VDD Mbreakp           
X_M8         VIN2 N32194 VTEAM PARAMS:  INITIAL_X=0.5 X_OFF=1 X_ON=0 V_ON=-0.8
+  V_OFF=0.8 K_ON=-0.036363636 K_OFF=0.036363636 ALPHA_ON=0.1 ALPHA_OFF=0.1
+  R_OFF=50000 R_ON=500 LAMDA=4.60517 OMEGA=25E-3 A_ON=0.05 A_OFF=0.95
M_T1         N32254 N31968 0 0 Mbreakn           
X_M7         VIN1 N32194 VTEAM PARAMS:  INITIAL_X=0.5 X_OFF=1 X_ON=0 V_ON=-0.8
+  V_OFF=0.8 K_ON=-0.036363636 K_OFF=0.036363636 ALPHA_ON=0.1 ALPHA_OFF=0.1
+  R_OFF=50000 R_ON=500 LAMDA=4.60517 OMEGA=25E-3 A_ON=0.05 A_OFF=0.95
X_M5         N32254 N32120 VTEAM PARAMS:  INITIAL_X=0.5 X_OFF=1 X_ON=0
+  V_ON=-0.8 V_OFF=0.8 K_ON=-0.036363636 K_OFF=0.036363636 ALPHA_ON=0.1
+  ALPHA_OFF=0.1 R_OFF=50000 R_ON=500 LAMDA=4.60517 OMEGA=25E-3 A_ON=0.05
+  A_OFF=0.95
X_M6         N32262 N32120 VTEAM PARAMS:  INITIAL_X=0.5 X_OFF=1 X_ON=0
+  V_ON=-0.8 V_OFF=0.8 K_ON=-0.036363636 K_OFF=0.036363636 ALPHA_ON=0.1
+  ALPHA_OFF=0.1 R_OFF=50000 R_ON=500 LAMDA=4.60517 OMEGA=25E-3 A_ON=0.05
+  A_OFF=0.95
X_M3         N32234 N32032 VTEAM PARAMS:  INITIAL_X=0.5 X_OFF=1 X_ON=0
+  V_ON=-0.8 V_OFF=0.8 K_ON=-0.036363636 K_OFF=0.036363636 ALPHA_ON=0.1
+  ALPHA_OFF=0.1 R_OFF=50000 R_ON=500 LAMDA=4.60517 OMEGA=25E-3 A_ON=0.05
+  A_OFF=0.95
M_T3         N32262 N32032 VDD VDD Mbreakp           
X_M4         VIN2 N32032 VTEAM PARAMS:  INITIAL_X=0.5 X_OFF=1 X_ON=0 V_ON=-0.8
+  V_OFF=0.8 K_ON=-0.036363636 K_OFF=0.036363636 ALPHA_ON=0.1 ALPHA_OFF=0.1
+  R_OFF=50000 R_ON=500 LAMDA=4.60517 OMEGA=25E-3 A_ON=0.05 A_OFF=0.95
X_M2         N32234 N31968 VTEAM PARAMS:  INITIAL_X=0.5 X_OFF=1 X_ON=0
+  V_ON=-0.8 V_OFF=0.8 K_ON=-0.036363636 K_OFF=0.036363636 ALPHA_ON=0.1
+  ALPHA_OFF=0.1 R_OFF=50000 R_ON=500 LAMDA=4.60517 OMEGA=25E-3 A_ON=0.05
+  A_OFF=0.95
M_T5         N32322 N32120 VDD VDD Mbreakp           
M_T4         N32262 N32032 0 0 Mbreakn           

**** RESUMING MRL_nand_xor.cir ****
.END

WARNING(ORPSIM-15223): Library file "C:\Users\Vijay\Google Drive\PSpice\FYP\MRL_nand_xor\mrl_nand_xor-pspicefiles\vteam.lib" has changed since index file vteam.ind was created.

WARNING(ORPSIM-15227): The timestamp changed from Thu May 26 09:05:16 2016 to Thu May 26 09:05:42 2016.

INFO(ORPSIM-15422): Making new index file vteam.ind for library file vteam.lib.

Index has 1 entries from 1 file(s).

**** 05/26/16 09:05:45 ****** PSpice Lite (October 2012) ****** ID# 10813 ****

 ** Profile: "SCHEMATIC1-MRL_nand_xor"  [ C:\Users\Vijay\Google Drive\PSpice\FYP\MRL_nand_xor\MRL_nand_xor-PSpiceFiles\SCHEMATIC1\MRL


 ****     Diode MODEL PARAMETERS


******************************************************************************




               Dbreak          
          IS   10.000000E-15 
           N  100.000000E-06 
          RS  100.000000E-06 
         CJO  100.000000E-15 


**** 05/26/16 09:05:45 ****** PSpice Lite (October 2012) ****** ID# 10813 ****

 ** Profile: "SCHEMATIC1-MRL_nand_xor"  [ C:\Users\Vijay\Google Drive\PSpice\FYP\MRL_nand_xor\MRL_nand_xor-PSpiceFiles\SCHEMATIC1\MRL


 ****     MOSFET MODEL PARAMETERS


******************************************************************************




               Mbreakn         Mbreakp         
               NMOS            PMOS            
       LEVEL    1               1            
           L  250.000000E-09  250.000000E-09 
           W    2.500000E-06    6.250000E-06 
         VTO    1.5            -1.5          
          KP   50.000000E-06   20.000000E-06 
       GAMMA    0               0            
         PHI     .6              .6          
      LAMBDA    0               0            
          IS   10.000000E-15   10.000000E-15 
          JS    0               0            
          PB     .8              .8          
        PBSW     .8              .8          
          CJ    0               0            
        CJSW    0               0            
        CGSO    0               0            
        CGDO    0               0            
        CGBO    0               0            
         TOX    0               0            
          XJ    0               0            
       UCRIT   10.000000E+03   10.000000E+03 
      DIOMOD    1               1            
         VFB    0               0            
        LETA    0               0            
        WETA    0               0            
          U0    0               0            
        TEMP    0               0            
         VDD    5               5            
       XPART    0               0            

Reducing minimum delta to make the circuit converge.
Reducing minimum delta to make the circuit converge.
Reducing minimum delta to make the circuit converge.
Reducing minimum delta to make the circuit converge.
Reducing minimum delta to make the circuit converge.
Reducing minimum delta to make the circuit converge.

INTERNAL ERROR -- Divide by Zero, Divide

ABORTING SIMULATION
**** 05/26/16 09:05:45 ****** PSpice Lite (October 2012) ****** ID# 10813 ****

 ** Profile: "SCHEMATIC1-MRL_nand_xor"  [ C:\Users\Vijay\Google Drive\PSpice\FYP\MRL_nand_xor\MRL_nand_xor-PSpiceFiles\SCHEMATIC1\MRL


 ****     JOB STATISTICS SUMMARY


******************************************************************************



Node counts:
  Top level (NUNODS)                =          12
  External (NCNODS)                 =          36
  Total (NUMNOD)                    =          52

Total device count (NUMEL)          =          83
  Capacitors (C)                    =           8
  Diodes (D)                        =          16
  VCCS (G)                          =          24
  MosFETs (M)                       =           8
  Resistors (R)                     =           8
  Voltage Sources (V)               =          19

Number of subcircuits (X)           =           8

Matrix statistics:
  Matrix size (NSTOP)               =          71
  Initial no. elements (NTTAR)      =         225
  No. elements w/ fillin (NTTBR)    =         239
  No. fillins (IFILL)               =          14
  No. overflows (NTTOV)             =         314
  No. LU operations (IOPS)          =         586
  Percent sparsity (PERSPA)         =      95.259

Analysis statistics:
  No. total time points (NUMTTP)    =        2045
  No. rejected time points (NUMRTP) =          13
  No. iterations (NUMNIT)           =        6262

Load Threads                        =           4

Runtime statistics:                       Seconds      Iterations
  Matrix load                       =        1.19
  Matrix solution                   =         .03               2
  Readin                            =        0.00
  General setup                     =         .02
  CMI setup                     =        0.00
  Setup                             =        0.00
  DC sweep                          =        0.00               0
  Bias point                        =        0.00               0
  AC and noise                      =        0.00               0
  Total transient analysis          =        0.00
  Output                            =        0.00
  Overhead                          =        2.09
  License check-out time            =       18.61
  Total job time (using Solver 1)   =        1.33
