
**** 05/27/16 14:17:10 ****** PSpice Lite (October 2012) ****** ID# 10813 ****

 ** Profile: "SCHEMATIC1-mrl_nand"  [ C:\Users\Vijay\Google Drive\PSpice\FYP\MRL\xor_nand\mrl_nand_xor-pspicefiles\schematic1\mrl_nan


 ****     CIRCUIT DESCRIPTION


******************************************************************************




** Creating circuit file "mrl_nand.cir" 
** WARNING: THIS AUTOMATICALLY GENERATED FILE MAY BE OVERWRITTEN BY SUBSEQUENT SIMULATIONS

*Libraries: 
* Profile Libraries :
* Local Libraries :
.LIB "../../../mrl_nand_xor-pspicefiles/vteam.lib" 
.LIB "../../../mrl_nand_xor-pspicefiles/mrl_nand_xor.lib" 
* From [PSPICE NETLIST] section of C:\Users\Vijay\Documents\PSpice\cdssetup\OrCAD_PSpice/16.6.0/PSpice.ini file:
.lib "nomd.lib" 

*Analysis directives: 
.TRAN  0 259 0 25m 
.OPTIONS ADVCONV
.PROBE64 V(*) I(*) W(alias(*)) D(alias(*)) NOISE(alias(*)) 
.INC "..\SCHEMATIC1.net" 



**** INCLUDING SCHEMATIC1.net ****
* source MRL_NAND_XOR
V_Vin2         VIN2 0   PWL   
+ FILE "C:\Users\Vijay\Google Drive\PSpice\FYP\MRL\xor_nand\v2.txt" 
V_V1         VDD 0 5Vdc
V_Vin1         VIN1 0   PWL   
+ FILE "C:\Users\Vijay\Google Drive\PSpice\FYP\MRL\xor_nand\v1.txt" 
M_T8         INT1 N32194 0 0 Mbreakn           
M_T6         VOUT N32120 0 0 Mbreakn           
M_T2         INT2 N31968 VDD VDD Mbreakp           
X_M1         VIN1 N31968 VTEAM PARAMS:  INITIAL_X=0.5 X_OFF=1 X_ON=0 V_ON=-0.8
+  V_OFF=0.8 K_ON=-0.036363636 K_OFF=0.036363636 ALPHA_ON=0.1 ALPHA_OFF=0.1
+  R_OFF=50000 R_ON=500 LAMDA=4.60517 OMEGA=25E-3 A_ON=0.05 A_OFF=0.95
M_T7         INT1 N32194 VDD VDD Mbreakp           
X_M8         VIN2 N32194 VTEAM PARAMS:  INITIAL_X=0.5 X_OFF=1 X_ON=0 V_ON=-0.8
+  V_OFF=0.8 K_ON=-0.036363636 K_OFF=0.036363636 ALPHA_ON=0.1 ALPHA_OFF=0.1
+  R_OFF=50000 R_ON=500 LAMDA=4.60517 OMEGA=25E-3 A_ON=0.05 A_OFF=0.95
M_T1         INT2 N31968 0 0 Mbreakn           
X_M7         VIN1 N32194 VTEAM PARAMS:  INITIAL_X=0.5 X_OFF=1 X_ON=0 V_ON=-0.8
+  V_OFF=0.8 K_ON=-0.036363636 K_OFF=0.036363636 ALPHA_ON=0.1 ALPHA_OFF=0.1
+  R_OFF=50000 R_ON=500 LAMDA=4.60517 OMEGA=25E-3 A_ON=0.05 A_OFF=0.95
X_M5         INT2 N32120 VTEAM PARAMS:  INITIAL_X=0.5 X_OFF=1 X_ON=0 V_ON=-0.8
+  V_OFF=0.8 K_ON=-0.036363636 K_OFF=0.036363636 ALPHA_ON=0.1 ALPHA_OFF=0.1
+  R_OFF=50000 R_ON=500 LAMDA=4.60517 OMEGA=25E-3 A_ON=0.05 A_OFF=0.95
X_M6         INT3 N32120 VTEAM PARAMS:  INITIAL_X=0.5 X_OFF=1 X_ON=0 V_ON=-0.8
+  V_OFF=0.8 K_ON=-0.036363636 K_OFF=0.036363636 ALPHA_ON=0.1 ALPHA_OFF=0.1
+  R_OFF=50000 R_ON=500 LAMDA=4.60517 OMEGA=25E-3 A_ON=0.05 A_OFF=0.95
X_M3         INT1 N32032 VTEAM PARAMS:  INITIAL_X=0.5 X_OFF=1 X_ON=0 V_ON=-0.8
+  V_OFF=0.8 K_ON=-0.036363636 K_OFF=0.036363636 ALPHA_ON=0.1 ALPHA_OFF=0.1
+  R_OFF=50000 R_ON=500 LAMDA=4.60517 OMEGA=25E-3 A_ON=0.05 A_OFF=0.95
M_T3         INT3 N32032 VDD VDD Mbreakp           
X_M4         VIN2 N32032 VTEAM PARAMS:  INITIAL_X=0.5 X_OFF=1 X_ON=0 V_ON=-0.8
+  V_OFF=0.8 K_ON=-0.036363636 K_OFF=0.036363636 ALPHA_ON=0.1 ALPHA_OFF=0.1
+  R_OFF=50000 R_ON=500 LAMDA=4.60517 OMEGA=25E-3 A_ON=0.05 A_OFF=0.95
X_M2         INT1 N31968 VTEAM PARAMS:  INITIAL_X=0.5 X_OFF=1 X_ON=0 V_ON=-0.8
+  V_OFF=0.8 K_ON=-0.036363636 K_OFF=0.036363636 ALPHA_ON=0.1 ALPHA_OFF=0.1
+  R_OFF=50000 R_ON=500 LAMDA=4.60517 OMEGA=25E-3 A_ON=0.05 A_OFF=0.95
M_T5         VOUT N32120 VDD VDD Mbreakp           
M_T4         INT3 N32032 0 0 Mbreakn           
X_U1         VIN1 VIN2 DESIRED OUTPUT $G_DPWR $G_DGND XOR

**** RESUMING mrl_nand.cir ****
.END

WARNING(ORPSIM-15220): Error in opening Alias File : C:\Users\Vijay\Google Drive\PSpice\FYP\MRL\xor_nand\MRL_nand_xor-PSpiceFiles\SCHEMATIC1\SCHEMATIC1.als
