
**** 05/28/16 00:20:54 ****** PSpice Lite (October 2012) ****** ID# 10813 ****

 ** Profile: "SCHEMATIC1-xor_unbuf"  [ C:\Users\Vijay\Google Drive\PSpice\FYP\MRL\xor_unbuf\xor_unbuf-pspicefiles\schematic1\xor_unbu


 ****     CIRCUIT DESCRIPTION


******************************************************************************




** Creating circuit file "xor_unbuf.cir" 
** WARNING: THIS AUTOMATICALLY GENERATED FILE MAY BE OVERWRITTEN BY SUBSEQUENT SIMULATIONS

*Libraries: 
* Profile Libraries :
* Local Libraries :
.LIB "../../../xor_unbuf-pspicefiles/vteam.lib" 
.LIB "../../../xor_unbuf-pspicefiles/xor_unbuf.lib" 
* From [PSPICE NETLIST] section of C:\Users\Vijay\Documents\PSpice\cdssetup\OrCAD_PSpice/16.6.0/PSpice.ini file:
.lib "nomd.lib" 

*Analysis directives: 
.TRAN  0 259 0 100m SKIPBP 
.OPTIONS ADVCONV
.PROBE64 V(*) I(*) W(alias(*)) D(alias(*)) NOISE(alias(*)) 
.INC "..\SCHEMATIC1.net" 



**** INCLUDING SCHEMATIC1.net ****
* source XOR_UNBUF
V_V1         VDD 0 5Vdc
V_Vin1         VIN1 0   PWL   
+ FILE "C:\Users\Vijay\Google Drive\PSpice\FYP\MRL\xor_unbuf\v1.txt" 
V_Vin2         VIN2 0   PWL   
+ FILE "C:\Users\Vijay\Google Drive\PSpice\FYP\MRL\xor_unbuf\v2.txt" 
X_M1         VIN1 N25760 VTEAM PARAMS:  INITIAL_X=0.75 X_OFF=1 X_ON=0 V_ON=-0.8
+  V_OFF=0.8 K_ON=-0.036363636 K_OFF=0.036363636 ALPHA_ON=0.1 ALPHA_OFF=0.1
+  R_OFF=50000 R_ON=500 LAMDA=4.60517 OMEGA=25E-3 A_ON=0.05 A_OFF=0.95
M_T6         VOUT N26012 0 0 Mbreakn           
M_T3         N26012 VOUT_UNBUF 0 0 Mbreakn           
X_M2         VIN2 N25760 VTEAM PARAMS:  INITIAL_X=0.75 X_OFF=1 X_ON=0 V_ON=-0.8
+  V_OFF=0.8 K_ON=-0.036363636 K_OFF=0.036363636 ALPHA_ON=0.1 ALPHA_OFF=0.1
+  R_OFF=50000 R_ON=500 LAMDA=4.60517 OMEGA=25E-3 A_ON=0.05 A_OFF=0.95
X_M8         VINT VIN1 VTEAM PARAMS:  INITIAL_X=0.75 X_OFF=1 X_ON=0 V_ON=-0.8
+  V_OFF=0.8 K_ON=-0.036363636 K_OFF=0.036363636 ALPHA_ON=0.1 ALPHA_OFF=0.1
+  R_OFF=50000 R_ON=500 LAMDA=4.60517 OMEGA=25E-3 A_ON=0.05 A_OFF=0.95
X_M6         VINT VOUT_UNBUF VTEAM PARAMS:  INITIAL_X=0.75 X_OFF=1 X_ON=0
+  V_ON=-0.8 V_OFF=0.8 K_ON=-0.036363636 K_OFF=0.036363636 ALPHA_ON=0.1
+  ALPHA_OFF=0.1 R_OFF=50000 R_ON=500 LAMDA=4.60517 OMEGA=25E-3 A_ON=0.05
+  A_OFF=0.95
X_M5         N25904 VOUT_UNBUF VTEAM PARAMS:  INITIAL_X=0.75 X_OFF=1 X_ON=0
+  V_ON=-0.8 V_OFF=0.8 K_ON=-0.036363636 K_OFF=0.036363636 ALPHA_ON=0.1
+  ALPHA_OFF=0.1 R_OFF=50000 R_ON=500 LAMDA=4.60517 OMEGA=25E-3 A_ON=0.05
+  A_OFF=0.95
M_T1         N25904 N25760 VDD VDD Mbreakp           
M_T5         VOUT N26012 VDD VDD Mbreakp           
M_T4         N26012 VOUT_UNBUF VDD VDD Mbreakp           
X_M4         VINT VIN2 VTEAM PARAMS:  INITIAL_X=0.75 X_OFF=1 X_ON=0 V_ON=-0.8
+  V_OFF=0.8 K_ON=-0.036363636 K_OFF=0.036363636 ALPHA_ON=0.1 ALPHA_OFF=0.1
+  R_OFF=50000 R_ON=500 LAMDA=4.60517 OMEGA=25E-3 A_ON=0.05 A_OFF=0.95
M_T2         N25904 N25760 0 0 Mbreakn           

**** RESUMING xor_unbuf.cir ****
.END

**** 05/28/16 00:20:54 ****** PSpice Lite (October 2012) ****** ID# 10813 ****

 ** Profile: "SCHEMATIC1-xor_unbuf"  [ C:\Users\Vijay\Google Drive\PSpice\FYP\MRL\xor_unbuf\xor_unbuf-pspicefiles\schematic1\xor_unbu


 ****     Diode MODEL PARAMETERS


******************************************************************************




               Dbreak          
          IS   10.000000E-15 
           N  100.000000E-06 
          RS  100.000000E-06 
         CJO  100.000000E-15 


**** 05/28/16 00:20:54 ****** PSpice Lite (October 2012) ****** ID# 10813 ****

 ** Profile: "SCHEMATIC1-xor_unbuf"  [ C:\Users\Vijay\Google Drive\PSpice\FYP\MRL\xor_unbuf\xor_unbuf-pspicefiles\schematic1\xor_unbu


 ****     MOSFET MODEL PARAMETERS


******************************************************************************




               Mbreakn         Mbreakp         
               NMOS            PMOS            
       LEVEL    1               1            
           L  250.000000E-09  250.000000E-09 
           W    2.500000E-06    6.250000E-06 
         VTO    1.5            -1.5          
          KP   50.000000E-06   20.000000E-06 
       GAMMA    0               0            
         PHI     .6              .6          
      LAMBDA    0               0            
          IS   10.000000E-15   10.000000E-15 
          JS    0               0            
          PB     .8              .8          
        PBSW     .8              .8          
          CJ    0               0            
        CJSW    0               0            
        CGSO    0               0            
        CGDO    0               0            
        CGBO    0               0            
         TOX    0               0            
          XJ    0               0            
       UCRIT   10.000000E+03   10.000000E+03 
      DIOMOD    1               1            
         VFB    0               0            
        LETA    0               0            
        WETA    0               0            
          U0    0               0            
        TEMP    0               0            
         VDD    5               5            
       XPART    0               0            

Reducing minimum delta to make the circuit converge.
Reducing minimum delta to make the circuit converge.
Reducing minimum delta to make the circuit converge.
Reducing minimum delta to make the circuit converge.
Reducing minimum delta to make the circuit converge.
Reducing minimum delta to make the circuit converge.
Reducing minimum delta to make the circuit converge.

INTERNAL ERROR -- Divide by Zero, Divide

ABORTING SIMULATION
**** 05/28/16 00:20:54 ****** PSpice Lite (October 2012) ****** ID# 10813 ****

 ** Profile: "SCHEMATIC1-xor_unbuf"  [ C:\Users\Vijay\Google Drive\PSpice\FYP\MRL\xor_unbuf\xor_unbuf-pspicefiles\schematic1\xor_unbu


 ****     JOB STATISTICS SUMMARY


******************************************************************************



Node counts:
  Top level (NUNODS)                =           9
  External (NCNODS)                 =          28
  Total (NUMNOD)                    =          40

Total device count (NUMEL)          =          63
  Capacitors (C)                    =           6
  Diodes (D)                        =          12
  VCCS (G)                          =          18
  MosFETs (M)                       =           6
  Resistors (R)                     =           6
  Voltage Sources (V)               =          15

Number of subcircuits (X)           =           6

Matrix statistics:
  Matrix size (NSTOP)               =          55
  Initial no. elements (NTTAR)      =         169
  No. elements w/ fillin (NTTBR)    =         175
  No. fillins (IFILL)               =           6
  No. overflows (NTTOV)             =         236
  No. LU operations (IOPS)          =         306
  Percent sparsity (PERSPA)         =      94.215

Analysis statistics:
  No. total time points (NUMTTP)    =         267
  No. rejected time points (NUMRTP) =          18
  No. iterations (NUMNIT)           =         986

Load Threads                        =           4

Runtime statistics:                       Seconds      Iterations
  Matrix load                       =         .14
  Matrix solution                   =        0.00               2
  Readin                            =         .02
  General setup                     =        0.00
  CMI setup                     =        0.00
  Setup                             =        0.00
  DC sweep                          =        0.00               0
  Bias point                        =        0.00               0
  AC and noise                      =        0.00               0
  Total transient analysis          =        0.00
  Output                            =        0.00
  Overhead                          =        2.06
  License check-out time            =        6.21
  Total job time (using Solver 1)   =         .19
