
**** 06/13/16 22:58:10 ****** PSpice Lite (October 2012) ****** ID# 10813 ****

 ** Profile: "SCHEMATIC1-bias"  [ C:\Users\Vijay\Google Drive\PSpice\FYP\Intro\stability\gates-pspicefiles\schematic1\bias.sim ] 


 ****     CIRCUIT DESCRIPTION


******************************************************************************




** Creating circuit file "bias.cir" 
** WARNING: THIS AUTOMATICALLY GENERATED FILE MAY BE OVERWRITTEN BY SUBSEQUENT SIMULATIONS

*Libraries: 
* Profile Libraries :
* Local Libraries :
.LIB "../../../gates-pspicefiles/gates.lib" 
.LIB "../../../gates-pspicefiles/vteam.lib" 
* From [PSPICE NETLIST] section of C:\Users\Vijay\Documents\PSpice\cdssetup\OrCAD_PSpice/16.6.0/PSpice.ini file:
.lib "nomd.lib" 

*Analysis directives: 
.TRAN  0 95 0 50m SKIPBP 
.OPTIONS ADVCONV
.PROBE64 V(*) I(*) W(alias(*)) D(alias(*)) NOISE(alias(*)) 
.INC "..\SCHEMATIC1.net" 



**** INCLUDING SCHEMATIC1.net ****
* source GATES
V_Vin1         V_IN 0   PWL   
+ FILE "C:\Users\Vijay\Google Drive\PSpice\FYP\Intro\stability\v1.txt" 
X_M1         V_IN 0 VTEAM PARAMS:  INITIAL_X=0.75 X_OFF=1 X_ON=0 V_ON=-0.8
+  V_OFF=0.8 K_ON=-0.036363636 K_OFF=0.036363636 ALPHA_ON=0.1 ALPHA_OFF=0.1
+  R_OFF=50000 R_ON=500 LAMDA=4.60517 OMEGA=25E-3 A_ON=0.05 A_OFF=0.95
X_M2         N62648 0 VTEAM PARAMS:  INITIAL_X=0.75 X_OFF=1 X_ON=0 V_ON=-0.8
+  V_OFF=0.8 K_ON=-0.036363636 K_OFF=0.036363636 ALPHA_ON=0.1 ALPHA_OFF=0.1
+  R_OFF=50000 R_ON=500 LAMDA=4.60517 OMEGA=25E-3 A_ON=0.05 A_OFF=0.95
I_I_in         N62648 0   PWL    FILE ""C:UsersVijayGoogle DrivePSpicei1.txt"" 

ERROR(ORPSIM-15347): Cannot open input file .


ABORTING SIMULATION
**** 06/13/16 22:58:10 ****** PSpice Lite (October 2012) ****** ID# 10813 ****

 ** Profile: "SCHEMATIC1-bias"  [ C:\Users\Vijay\Google Drive\PSpice\FYP\Intro\stability\gates-pspicefiles\schematic1\bias.sim ] 


 ****     JOB STATISTICS SUMMARY


******************************************************************************



Node counts:
  Top level (NUNODS)                =           1
  External (NCNODS)                 =           3
  Total (NUMNOD)                    =           0

Total device count (NUMEL)          =           2
  Current Sources (I)               =           1
  Voltage Sources (V)               =           1

Number of subcircuits (X)           =           2

Analysis statistics:
  No. total time points (NUMTTP)    =           0
  No. rejected time points (NUMRTP) =           0
  No. iterations (NUMNIT)           =           0

Load Threads                        =           1

Runtime statistics:                       Seconds      Iterations
  Readin                            =        0.00
  General setup                     =        0.00
  CMI setup                     =        0.00
  Setup                             =        0.00
  DC sweep                          =        0.00               0
  Bias point                        =        0.00               0
  AC and noise                      =        0.00               0
  Total transient analysis          =        0.00
  Output                            =        0.00
  Overhead                          =        2.09
  License check-out time            =       12.36
  Total job time                    =         .02
