
**** 06/14/16 00:13:18 ****** PSpice Lite (October 2012) ****** ID# 10813 ****

 ** Profile: "SCHEMATIC1-bias"  [ C:\Users\Vijay\Google Drive\PSpice\FYP\Intro\stability\gates-pspicefiles\schematic1\bias.sim ] 


 ****     CIRCUIT DESCRIPTION


******************************************************************************




** Creating circuit file "bias.cir" 
** WARNING: THIS AUTOMATICALLY GENERATED FILE MAY BE OVERWRITTEN BY SUBSEQUENT SIMULATIONS

*Libraries: 
* Profile Libraries :
* Local Libraries :
.LIB "../../../gates-pspicefiles/gates.lib" 
.LIB "../../../gates-pspicefiles/vteam.lib" 
* From [PSPICE NETLIST] section of C:\Users\Vijay\Documents\PSpice\cdssetup\OrCAD_PSpice/16.6.0/PSpice.ini file:
.lib "nomd.lib" 

*Analysis directives: 
.TRAN  0 90 0 2m SKIPBP 
.OPTIONS ADVCONV
.PROBE64 V(*) I(*) W(alias(*)) D(alias(*)) NOISE(alias(*)) 
.INC "..\SCHEMATIC1.net" 



**** INCLUDING SCHEMATIC1.net ****
* source GATES
V_Vin1         V_IN 0   PWL   
+ FILE "C:\Users\Vijay\Google Drive\PSpice\FYP\Intro\stability\v1.txt" 
I_I_in         N62648 0   PWL    FILE "C:\Users\Vijay\i1.txt" 
X_M1         V_IN 0 VTEAM PARAMS:  INITIAL_X=0.75 X_OFF=1 X_ON=0 V_ON=-0.8
+  V_OFF=0.8 K_ON=-0.036363636 K_OFF=0.036363636 ALPHA_ON=0.1 ALPHA_OFF=0.1
+  R_OFF=50000 R_ON=500 LAMDA=4.60517 OMEGA=25E-3 A_ON=0.05 A_OFF=0.95
R_R1         N62648 0  1k TC=0,0 

**** RESUMING bias.cir ****
.END

**** 06/14/16 00:13:18 ****** PSpice Lite (October 2012) ****** ID# 10813 ****

 ** Profile: "SCHEMATIC1-bias"  [ C:\Users\Vijay\Google Drive\PSpice\FYP\Intro\stability\gates-pspicefiles\schematic1\bias.sim ] 


 ****     Diode MODEL PARAMETERS


******************************************************************************




               Dbreak          
          IS   10.000000E-15 
           N  100.000000E-06 
          RS  100.000000E-06 
         CJO  100.000000E-15 



          JOB CONCLUDED

**** 06/14/16 00:13:18 ****** PSpice Lite (October 2012) ****** ID# 10813 ****

 ** Profile: "SCHEMATIC1-bias"  [ C:\Users\Vijay\Google Drive\PSpice\FYP\Intro\stability\gates-pspicefiles\schematic1\bias.sim ] 


 ****     JOB STATISTICS SUMMARY


******************************************************************************



  License check-out time            =       18.47
  Total job time (using Solver 1)   =        5.73
