
**** 03/25/16 13:44:40 ****** PSpice Lite (October 2012) ****** ID# 10813 ****

 ** Profile: "SCHEMATIC1-memrist_intro"  [ C:\Users\Vijay\Google Drive\PSpice\FYP\memrist_intro\memrst_intro-pspicefiles\schematic1\m


 ****     CIRCUIT DESCRIPTION


******************************************************************************




** Creating circuit file "memrist_intro.cir" 
** WARNING: THIS AUTOMATICALLY GENERATED FILE MAY BE OVERWRITTEN BY SUBSEQUENT SIMULATIONS

*Libraries: 
* Profile Libraries :
* Local Libraries :
.LIB "../../../memrst_intro-pspicefiles/team.lib" 
.LIB "../../../memrst_intro-pspicefiles/vteam.lib" 
* From [PSPICE NETLIST] section of C:\Users\Vijay\Documents\PSpice\cdssetup\OrCAD_PSpice/16.6.0/PSpice.ini file:
.lib "nomd.lib" 

*Analysis directives: 
.TRAN  0 100s 0 10m SKIPBP 
.OPTIONS ADVCONV
.PROBE64 V(alias(*)) I(alias(*)) W(alias(*)) D(alias(*)) NOISE(alias(*)) 
.INC "..\SCHEMATIC1.net" 



**** INCLUDING SCHEMATIC1.net ****
* source MEMRST_INTRO
X_U1         N00134 0 VTEAM PARAMS:  INITIAL_X=0.75 X_OFF=1 X_ON=0 V_ON=-1
+  V_OFF=1 K_ON=-0.036363636 K_OFF=0.036363636 ALPHA_ON=0.1 ALPHA_OFF=0.1
+  R_OFF=50000 R_ON=500 LAMDA=4.60517 OMEGA=25E-3 A_ON=0.05 A_OFF=0.95
V_V2         N00134 0  
+SIN 0 2 0.05 0 0 0
X_U2         N00820 0 TEAM PARAMS:  INITIAL_X=0.5 X_OFF=1 X_ON=0 I_ON=-50E-6
+  I_OFF=50E-6 K_ON=-0.1 K_OFF=0.1 ALPHA_ON=2 ALPHA_OFF=2 R_OFF=10000 R_ON=100
+  LAMDA=4.60517 OMEGA=100E-3 A_ON=0.2 A_OFF=0.8
I_I1         N00820 0 DC 0Adc AC 0Aac
+SIN 0 2 100 0 0 0

**** RESUMING memrist_intro.cir ****
.END

WARNING(ORPSIM-15223): Library file "C:\Users\Vijay\Google Drive\PSpice\FYP\memrist_intro\memrst_intro-pspicefiles\team.lib" has changed since index file team.ind was created.

WARNING(ORPSIM-15227): The timestamp changed from Fri Mar 25 13:43:10 2016 to Fri Mar 25 13:44:35 2016.

INFO(ORPSIM-15422): Making new index file team.ind for library file team.lib.

Index has 1 entries from 1 file(s).


**** EXPANSION OF SUBCIRCUIT X_U2 ****
.func mem_rel(x) {r_on+((r_off-r_on)*(x-x_on))/(x_off-x_on)}
.func gfon(x) {if( (0>x), 0.1x, 0)}
-----------------------------------$
ERROR(ORPSIM-16318): Missing or invalid expression
.func gfoff(x) {if((0<x),0.1x, 0)}
----------------------------------$
ERROR(ORPSIM-16318): Missing or invalid expression
X_U2.Cstate X_U2.state 0 300 IC {initial_x}

WARNING(ORPSIM-15213): Too many arguments to function X_U2.gfon.
X_U2.Gon 0 X_U2.state VALUE {(gfon(I(Visense)))}
----------------------------$
ERROR(ORPSIM-16318): Missing or invalid expression

WARNING(ORPSIM-15213): Too many arguments to function X_U2.gfoff.
X_U2.Goff 0 X_U2.state VALUE {(gfoff(I(Visense)))}
-----------------------------$
ERROR(ORPSIM-16318): Missing or invalid expression
